AeroDyn airfoil file.
Re     0.30E6
aol   0.000055   Zero Cn angle of attack (deg)
cna   6.050397   Cn slope for zero lift (dimensionless)
cns   1.185384   Cn extrapolated to value at positive stall angle of attack
cnsl -1.184507   Cn at stall value for negative angle of attack
aod   0.000000   Angle of attack for minimum CD (deg)
cd0   0.010710   Minimum CD value
AL  -16.75  -16.5  -16.25  -16  -15.75  -15.5  -15.25  -15  -14.75  -14.5  -14.25  -14  -13.75  -13.5  -13.25  -13  -12.75  -12.5  -12.25  -12  -11.75  -11.5  -11.25  -11  -10.75  -10.5  -10.25  -10  -9.75  -9.5  -9.25  -9  -8.75  -8.5  -8.25  -8  -7.75  -7.5  -7.25  -7  -6.75  -6.5  -6.25  -6  -5.75  -5.5  -5.25  -5  -4.75  -4.5  -4.25  -4  -3.75  -3.5  -3.25  -3  -2.75  -2.5  -2.25  -2  -1.75  -1.5  -1.25  -1  -0.75  -0.5  -0.25  0  0.25  0.5  0.75  1  1.25  1.5  1.75  2  2.25  2.5  2.75  3  3.25  3.5  3.75  4  4.25  4.5  4.75  5  5.25  5.5  5.75  6  6.25  6.5  6.75  7  7.25  7.5  7.75  8  8.25  8.5  8.75  9  9.25  9.5  9.75  10  10.25  10.5  10.75  11  11.25  11.5  11.75  12  12.25  12.5  12.75  13  13.25  13.5  13.75  14  14.25  14.5  14.75  15  15.25  15.5  15.75  16  16.25  16.5  16.75
CL  -0.9069  -1.0046  -1.0607  -1.0983  -1.126  -1.1477  -1.1655  -1.1804  -1.1931  -1.204  -1.213  -1.1945  -1.183  -1.1751  -1.169  -1.1622  -1.1558  -1.1499  -1.1272  -1.1117  -1.0987  -1.0867  -1.0757  -1.0559  -1.0416  -1.0275  -1.0125  -0.9985  -0.9839  -0.9709  -0.9573  -0.9448  -0.9312  -0.9189  -0.9043  -0.8911  -0.8775  -0.8627  -0.8472  -0.8318  -0.8163  -0.8001  -0.7833  -0.7661  -0.7485  -0.7302  -0.7113  -0.692  -0.6677  -0.6253  -0.5848  -0.5417  -0.5033  -0.4602  -0.4234  -0.3803  -0.3431  -0.3012  -0.2651  -0.2286  -0.1973  -0.1627  -0.1357  -0.108  -0.0803  -0.0531  -0.0264  0  0.0264  0.0531  0.0803  0.108  0.1357  0.1627  0.1973  0.2286  0.265  0.3012  0.343  0.3803  0.4234  0.4602  0.5033  0.5417  0.5848  0.6253  0.6677  0.6919  0.7112  0.73  0.7483  0.7659  0.7832  0.8  0.8162  0.8317  0.8471  0.8626  0.8774  0.891  0.9042  0.9189  0.9312  0.9448  0.9574  0.971  0.9841  0.9987  1.0128  1.0278  1.042  1.0564  1.0762  1.0872  1.0993  1.1124  1.128  1.1504  1.1565  1.1629  1.1699  1.176  1.1841  1.1959  1.2139  1.2047  1.194  1.1814  1.1666  1.1489  1.1273  1.0996  1.0615  1.0046  0.9052
CD  0.11931  0.09629  0.08367  0.07517  0.0687  0.06342  0.05898  0.05515  0.05184  0.04899  0.04658  0.04426  0.04267  0.04113  0.03956  0.03804  0.03658  0.03528  0.03352  0.03242  0.03139  0.03038  0.02948  0.02808  0.02719  0.02637  0.02539  0.0245  0.02379  0.02284  0.02217  0.02138  0.02079  0.02007  0.01954  0.01894  0.01836  0.01787  0.01743  0.01699  0.01654  0.01614  0.01578  0.01545  0.01512  0.01485  0.01461  0.01442  0.01422  0.01402  0.01381  0.01363  0.01341  0.01321  0.013  0.01277  0.01257  0.01231  0.01208  0.01184  0.01161  0.01136  0.01119  0.01103  0.0109  0.01079  0.01073  0.01071  0.01073  0.01079  0.0109  0.01103  0.01119  0.01136  0.01161  0.01183  0.01208  0.01231  0.01257  0.01277  0.013  0.01321  0.01341  0.01363  0.01381  0.01402  0.01422  0.01441  0.01461  0.01484  0.01512  0.01544  0.01578  0.01614  0.01654  0.01698  0.01742  0.01786  0.01836  0.01893  0.01953  0.02006  0.02079  0.02138  0.02216  0.02284  0.02379  0.0245  0.02539  0.02636  0.02719  0.02808  0.02948  0.03038  0.0314  0.03242  0.03353  0.03528  0.03659  0.03805  0.03957  0.04113  0.04267  0.04426  0.0466  0.04901  0.05186  0.05518  0.05902  0.06346  0.06873  0.07523  0.08381  0.09664  0.12012
CM  0.0  0.0  0.0  0.0  0.0  0.0  0.0  0.0  0.0  0.0  0.0  0.0  0.0  0.0  0.0  0.0  0.0  0.0  0.0  0.0  0.0  0.0  0.0  0.0  0.0  0.0  0.0  0.0  0.0  0.0  0.0  0.0  0.0  0.0  0.0  0.0  0.0  0.0  0.0  0.0  0.0  0.0  0.0  0.0  0.0  0.0  0.0  0.0  0.0  0.0  0.0  0.0  0.0  0.0  0.0  0.0  0.0  0.0  0.0  0.0  0.0  0.0  0.0  0.0  0.0  0.0  0.0  0.0  0.0  0.0  0.0  0.0  0.0  0.0  0.0  0.0  0.0  0.0  0.0  0.0  0.0  0.0  0.0  0.0  0.0  0.0  0.0  0.0  0.0  0.0  0.0  0.0  0.0  0.0  0.0  0.0  0.0  0.0  0.0  0.0  0.0  0.0  0.0  0.0  0.0  0.0  0.0  0.0  0.0  0.0  0.0  0.0  0.0  0.0  0.0  0.0  0.0  0.0  0.0  0.0  0.0  0.0  0.0  0.0  0.0  0.0  0.0  0.0  0.0  0.0  0.0  0.0  0.0  0.0  0.0

